Public_Data_PSSEFiles/MIT_PNNL_Report/HVGridPR_v26.raw
0,100


1,'Costa su',115,3,0,0,1,1,1,0,1
2,'Bayamon',115,1,0,0,1,1,1,0,1
3,'Rio Laja',115,1,0,0,1,1,1,0,1
4,'Mayaguez',115,1,0,0,1,1,1,0,1
5,'Aguadill',115,1,0,0,1,1,1,0,1
6,'Mora',115,1,0,0,1,1,1,0,1
7,'San Anto',115,1,0,0,1,1,1,0,1
8,'Monacill',115,1,0,0,1,1,1,0,1
9,'Aguas Bu',115,1,0,0,1,1,1,0,1
10,'Aurora',115,2,0,0,1,1,1,0,1
11,'Ecoelect',115,2,0,0,1,1,1,0,1
12,'Arecibo',115,2,0,0,1,1,1,0,1
13,'Toro Neg',115,1,0,0,1,1,1,0,1
14,'Ponce',115,1,0,0,1,1,1,0,1
15,'San Seba',115,1,0,0,1,1,1,0,1
16,'Don Boco',115,1,0,0,1,1,1,0,1
17,'Pajaros',115,1,0,0,1,1,1,0,1
18,'Ciales',115,1,0,0,1,1,1,0,1
19,'Dos Boca',115,2,0,0,1,1,1,0,1
20,'Sabana L',115,1,0,0,1,1,1,0,1
21,'Caguas',115,1,0,0,1,1,1,0,1
22,'San Juan',115,1,0,0,1,1,1,0,1
23,'Puerto N',115,1,0,0,1,1,1,0,1
24,'Union Ca',115,1,0,0,1,1,1,0,1
25,'San Juan',115,2,0,0,1,1,1,0,1
26,'Hato Rey',115,1,0,0,1,1,1,0,1
27,'Daguao',115,1,0,0,1,1,1,0,1
28,'Trujillo',115,1,0,0,1,1,1,0,1
29,'Fajardo',115,1,0,0,1,1,1,0,1
30,'Aguirre',115,2,0,0,1,1,1,0,1
31,'Maunabo',115,1,0,0,1,1,1,0,1
32,'Candeler',115,1,0,0,1,1,1,0,1
33,'Humacao',115,1,0,0,1,1,1,0,1
34,'Comerio',115,1,0,0,1,1,1,0,1
35,'Coto Nor',115,1,0,0,1,1,1,0,1
36,'Monte Ca',115,1,0,0,1,1,1,0,1
37,'Central ',115,1,0,0,1,1,1,0,1
38,'Cayey',115,1,0,0,1,1,1,0,1
39,'Toro Neg',115,1,0,0,1,1,1,0,1
40,'Central ',115,2,0,0,1,1,1,0,1
41,'Planta d',115,1,0,0,1,1,1,0,1
42,'Planta d',115,1,0,0,1,1,1,0,1
43,'Central ',115,1,0,0,1,1,1,0,1
44,'Rio Blan',115,1,0,0,1,1,1,0,1
45,'Quebrada',115,1,0,0,1,1,1,0,1
46,'Caonilla',115,2,0,0,1,1,1,0,1
47,'Loiza Ta',115,1,0,0,1,1,1,0,1
48,'Yabucoa',115,1,0,0,1,1,1,0,1
49,'Planta H',115,1,0,0,1,1,1,0,1
50,'Olimpo T',115,1,0,0,1,1,1,0,1
51,'Aguas Bu',230,1,0,0,1,1,1,0,1
52,'Aguirre_',230,1,0,0,1,1,1,0,1
53,'Aurora_H',230,1,0,0,1,1,1,0,1
54,'Bayamon_',230,1,0,0,1,1,1,0,1
55,'Candeler',230,1,0,0,1,1,1,0,1
56,'Comerio_',230,1,0,0,1,1,1,0,1
57,'Costa su',230,1,0,0,1,1,1,0,1
58,'Coto Nor',230,1,0,0,1,1,1,0,1
59,'Mayaguez',230,1,0,0,1,1,1,0,1
60,'Rio Blan',230,1,0,0,1,1,1,0,1
61,'Sabana L',230,1,0,0,1,1,1,0,1
0 / END OF BUS DATA, BEGIN LOAD DATA
5,1,1,1,1,112.29132409365,36.908373379071,0,0,0,0,1
6,1,1,1,1,112.29132409365,36.908373379071,0,0,0,0,1
4,1,1,1,1,112.29132409365,36.908373379071,0,0,0,0,1
7,1,1,1,1,124.111463471929,40.79346531371,0,0,0,0,1
15,1,1,1,1,124.111463471929,40.79346531371,0,0,0,0,1
1,1,1,1,1,53.1906272022551,17.4829137058757,0,0,0,0,1
11,1,1,1,1,53.1906272022551,17.4829137058757,0,0,0,0,1
12,1,1,1,1,42.5525017618041,13.9863309647006,0,0,0,0,1
46,1,1,1,1,42.5525017618041,13.9863309647006,0,0,0,0,1
16,1,1,1,1,42.5525017618041,13.9863309647006,0,0,0,0,1
19,1,1,1,1,42.5525017618041,13.9863309647006,0,0,0,0,1
45,1,1,1,1,42.5525017618041,13.9863309647006,0,0,0,0,1
14,1,1,1,1,100.471184715371,33.0232814444319,0,0,0,0,1
39,1,1,1,1,100.471184715371,33.0232814444319,0,0,0,0,1
13,1,1,1,1,100.471184715371,33.0232814444319,0,0,0,0,1
18,1,1,1,1,41.3704878239762,13.5978217712367,0,0,0,0,1
35,1,1,1,1,41.3704878239762,13.5978217712367,0,0,0,0,1
36,1,1,1,1,41.3704878239762,13.5978217712367,0,0,0,0,1
30,1,1,1,1,17.7302090674184,5.82763790195857,0,0,0,0,1
10,1,1,1,1,17.7302090674184,5.82763790195857,0,0,0,0,1
38,1,1,1,1,17.7302090674184,5.82763790195857,0,0,0,0,1
37,1,1,1,1,17.7302090674184,5.82763790195857,0,0,0,0,1
43,1,1,1,1,17.7302090674184,5.82763790195857,0,0,0,0,1
34,1,1,1,1,17.7302090674184,5.82763790195857,0,0,0,0,1
50,1,1,1,1,17.7302090674184,5.82763790195857,0,0,0,0,1
42,1,1,1,1,17.7302090674184,5.82763790195857,0,0,0,0,1
9,1,1,1,1,50.9743510688278,16.7544589681309,0,0,0,0,1
2,1,1,1,1,50.9743510688278,16.7544589681309,0,0,0,0,1
40,1,1,1,1,50.9743510688278,16.7544589681309,0,0,0,0,1
17,1,1,1,1,50.9743510688278,16.7544589681309,0,0,0,0,1
41,1,1,1,1,50.9743510688278,16.7544589681309,0,0,0,0,1
49,1,1,1,1,50.9743510688278,16.7544589681309,0,0,0,0,1
3,1,1,1,1,50.9743510688278,16.7544589681309,0,0,0,0,1
25,1,1,1,1,50.9743510688278,16.7544589681309,0,0,0,0,1
32,1,1,1,1,70.9208362696735,23.3105516078343,0,0,0,0,1
31,1,1,1,1,70.9208362696735,23.3105516078343,0,0,0,0,1
24,1,1,1,1,70.9208362696735,23.3105516078343,0,0,0,0,1
48,1,1,1,1,70.9208362696735,23.3105516078343,0,0,0,0,1
21,1,1,1,1,104.164978271083,34.2373726740066,0,0,0,0,1
26,1,1,1,1,104.164978271083,34.2373726740066,0,0,0,0,1
47,1,1,1,1,104.164978271083,34.2373726740066,0,0,0,0,1
8,1,1,1,1,104.164978271083,34.2373726740066,0,0,0,0,1
23,1,1,1,1,104.164978271083,34.2373726740066,0,0,0,0,1
20,1,1,1,1,104.164978271083,34.2373726740066,0,0,0,0,1
22,1,1,1,1,104.164978271083,34.2373726740066,0,0,0,0,1
28,1,1,1,1,104.164978271083,34.2373726740066,0,0,0,0,1
33,1,1,1,1,124.111463471929,40.79346531371,0,0,0,0,1
27,1,1,1,1,124.111463471929,40.79346531371,0,0,0,0,1
29,1,1,1,1,132.976568005638,43.7072842646893,0,0,0,0,1
44,1,1,1,1,132.976568005638,43.7072842646893,0,0,0,0,1
0 / END OF LOAD DATA, BEGIN GENERATOR DATA 
30,1,460,151.194688382277,900,-900,1,0,100,0,0,0,0,1,1,100,900,460
12,1,127,41.7428813577156,248,-248,1,0,100,0,0,0,0,1,1,100,248,127
10,1,332,109.123122919383,454,-454,1,0,100,0,0,0,0,1,1,100,454,332
46,1,0,0,18,-18,1,0,100,0,0,0,0,1,1,100,18,0
40,1,390,128.186801019757,600,-600,1,0,100,0,0,0,0,1,1,100,600,390
1,1,744,244.540974253074,1090,-1090,1,0,100,0,0,0,0,1,1,100,1090,744
19,1,0,0,10.5,-10.5,1,0,100,0,0,0,0,1,1,100,10.5,0
11,1,308,101.23470439509,568,-568,1,0,100,0,0,0,0,1,1,100,568,308
25,1,260,85.4578673465044,400,-400,1,0,100,0,0,0,0,1,1,100,400,260
0 / END OF GENERATOR DATA, BEGIN BRANCH DATA 
57,59,1,0.00795668183259167,0.0618234178392373,0.3171200492325,2000,2000,2000,0,0,0,0,0,0,1,1,0,1,0,1,0,1
1,4,1,0.0365020007085803,0.221772659767257,0.082286031317902,2000,2000,2000,0,0,0,0,0,0,1,1,0,1,0,1,0,1
2,40,1,0.00432067169648857,0.0262508036685818,0.00974003943975759,2000,2000,2000,0,0,0,0,0,0,1,1,0,1,0,1,0,1
2,40,1,0.00443477746419036,0.02694406812277,0.00999726673120452,2000,2000,2000,0,0,0,0,0,0,1,1,0,1,0,1,0,1
2,40,1,0.00443477746419036,0.02694406812277,0.00999726673120452,2000,2000,2000,0,0,0,0,0,0,1,1,0,1,0,1,0,1
2,3,1,0.00829994503142571,0.0504273971237041,0.0187104685643223,2000,2000,2000,0,0,0,0,0,0,1,1,0,1,0,1,0,1
3,36,1,0.00853787324279313,0.0518729609625162,0.0192468273356756,2000,2000,2000,0,0,0,0,0,0,1,1,0,1,0,1,0,1
4,15,1,0.014166365736374,0.0860696002302388,0.0319350718321069,2000,2000,2000,0,0,0,0,0,0,1,1,0,1,0,1,0,1
5,6,1,0.00906841126785567,0.0550963138374761,0.0204428129720293,2000,2000,2000,0,0,0,0,0,0,1,1,0,1,0,1,0,1
4,5,1,0.0129466388309361,0.078658990544259,0.0291854558003325,2000,2000,2000,0,0,0,0,0,0,1,1,0,1,0,1,0,1
6,7,1,0.00651260717802638,0.0395681931908662,0.0146812938416908,2000,2000,2000,0,0,0,0,0,0,1,1,0,1,0,1,0,1
7,12,1,0.0158646859276078,0.0963879657618525,0.0357635750848296,2000,2000,2000,0,0,0,0,0,0,1,1,0,1,0,1,0,1
2,8,1,0.00694254195408898,0.0421803179227423,0.0156504907558595,2000,2000,2000,0,0,0,0,0,0,1,1,0,1,0,1,0,1
2,8,1,0.00694254195408898,0.0421803179227423,0.0156504907558595,2000,2000,2000,0,0,0,0,0,0,1,1,0,1,0,1,0,1
8,44,1,0.022795169269702,0.138495020016761,0.0513868822533517,2000,2000,2000,0,0,0,0,0,0,1,1,0,1,0,1,0,1
9,8,1,0.00866277636229144,0.052631826133922,0.0195283949704142,2000,2000,2000,0,0,0,0,0,0,1,1,0,1,0,1,0,1
10,9,1,0.0181638859209337,0.110357054796933,0.0409466346153846,2000,2000,2000,0,0,0,0,0,0,1,1,0,1,0,1,0,1
11,14,1,0.00807008123528304,0.0490308296899969,0.0181922893094574,2000,2000,2000,0,0,0,0,0,0,1,1,0,1,0,1,0,1
12,16,1,0.00836151772849791,0.0508014900647394,0.0188492711718851,2000,2000,2000,0,0,0,0,0,0,1,1,0,1,0,1,0,1
13,16,1,0.0215172187063368,0.13073066491329,0.0485060133136095,2000,2000,2000,0,0,0,0,0,0,1,1,0,1,0,1,0,1
14,13,1,0.0145311087367469,0.0882856438375465,0.0327573076923077,2000,2000,2000,0,0,0,0,0,0,1,1,0,1,0,1,0,1
15,45,1,0.0124908185203843,0.0758895948759485,0.0281579054299063,2000,2000,2000,0,0,0,0,0,0,1,1,0,1,0,1,0,1
16,45,1,0.00806036237419457,0.0489717814835519,0.0181703801950973,2000,2000,2000,0,0,0,0,0,0,1,1,0,1,0,1,0,1
17,8,1,0.00754499876715706,0.045840622761803,0.0170086020710059,2000,2000,2000,0,0,0,0,0,0,1,1,0,1,0,1,0,1
18,17,1,0.018499219199474,0.112394415808569,0.0417025724852071,2000,2000,2000,0,0,0,0,0,0,1,1,0,1,0,1,0,1
16,19,1,3.96811046272705e-05,0.000241087719710223,8.94526479289941e-05,2000,2000,2000,0,0,0,0,0,0,1,1,0,1,0,1,0,1
19,18,1,0.0138045532999096,0.0838713616456692,0.0311194423076923,2000,2000,2000,0,0,0,0,0,0,1,1,0,1,0,1,0,1
61,60,1,0.00419074999445531,0.0325621274569177,0.16702576180929,2000,2000,2000,0,0,0,0,0,0,1,1,0,1,0,1,0,1
21,8,1,0.010212301648085,0.0620461688366844,0.0230214716160655,2000,2000,2000,0,0,0,0,0,0,1,1,0,1,0,1,0,1
61,53,1,0.00687252673486229,0.05339953272988,0.273910162850048,2000,2000,2000,0,0,0,0,0,0,1,1,0,1,0,1,0,1
16,1,1,0.023911735686791,0.145278864718907,0.0539039448083231,2000,2000,2000,0,0,0,0,0,0,1,1,0,1,0,1,0,1
22,8,1,0.00522890569525694,0.0317688976274854,0.0117874606719058,2000,2000,2000,0,0,0,0,0,0,1,1,0,1,0,1,0,1
5,15,1,0.0115174447160144,0.0699757355435162,0.0259636402993492,2000,2000,2000,0,0,0,0,0,0,1,1,0,1,0,1,0,1
23,22,1,0.00147143314755622,0.00893988374523652,0.00331703445596474,2000,2000,2000,0,0,0,0,0,0,1,1,0,1,0,1,0,1
16,46,1,0.00423451352730929,0.0257273384894506,0.00954581409129025,2000,2000,2000,0,0,0,0,0,0,1,1,0,1,0,1,0,1
14,30,1,0.0302570295124548,0.183830523844578,0.0682080661256272,2000,2000,2000,0,0,0,0,0,0,1,1,0,1,0,1,0,1
24,32,1,0.00223472147291061,0.013577341385835,0.00503770635957183,2000,2000,2000,0,0,0,0,0,0,1,1,0,1,0,1,0,1
20,8,1,0.00696595971141832,0.0423225955576088,0.0157032811310606,2000,2000,2000,0,0,0,0,0,0,1,1,0,1,0,1,0,1
2,25,1,0.00557279694189543,0.0338582536889949,0.0125626906686604,2000,2000,2000,0,0,0,0,0,0,1,1,0,1,0,1,0,1
25,22,1,0.00191317594607607,0.0116237496555714,0.00431285005642079,2000,2000,2000,0,0,0,0,0,0,1,1,0,1,0,1,0,1
22,26,1,0.00131233279759288,0.00797324884587943,0.00295837640638843,2000,2000,2000,0,0,0,0,0,0,1,1,0,1,0,1,0,1
26,20,1,0.00745819789456542,0.0453132527543765,0.0168129278837875,2000,2000,2000,0,0,0,0,0,0,1,1,0,1,0,1,0,1
25,26,1,0.00337317805835775,0.0204941826570811,0.00760411566387484,2000,2000,2000,0,0,0,0,0,0,1,1,0,1,0,1,0,1
20,47,1,0.00926120193930344,0.0562676386732469,0.0208774187174842,2000,2000,2000,0,0,0,0,0,0,1,1,0,1,0,1,0,1
27,44,1,0.00792870479896555,0.0481718787365722,0.0178735860701663,2000,2000,2000,0,0,0,0,0,0,1,1,0,1,0,1,0,1
8,28,1,0.00447111038053752,0.0271648134884759,0.0100791715976331,2000,2000,2000,0,0,0,0,0,0,1,1,0,1,0,1,0,1
28,29,1,0.023864551656119,0.14499219199474,0.0537975784023669,2000,2000,2000,0,0,0,0,0,0,1,1,0,1,0,1,0,1
29,27,1,0.00952514643844327,0.0578712678570965,0.0214724257006851,2000,2000,2000,0,0,0,0,0,0,1,1,0,1,0,1,0,1
54,51,1,0.00236137315886796,0.0183478694444041,0.0941144547629346,2000,2000,2000,0,0,0,0,0,0,1,1,0,1,0,1,0,1
51,52,1,0.00511270072829832,0.0397256846588779,0.20377086086662,2000,2000,2000,0,0,0,0,0,0,1,1,0,1,0,1,0,1
61,51,1,0.00304179492470071,0.0236347465649245,0.12123321964755,2000,2000,2000,0,0,0,0,0,0,1,1,0,1,0,1,0,1
51,53,1,0.00381997579211311,0.0296812119047188,0.152248253323369,2000,2000,2000,0,0,0,0,0,0,1,1,0,1,0,1,0,1
30,10,1,0.0102257870385729,0.0621281010830939,0.023051871573396,2000,2000,2000,0,0,0,0,0,0,1,1,0,1,0,1,0,1
31,48,1,0.00430344374126736,0.026146132982658,0.00970120266272189,2000,2000,2000,0,0,0,0,0,0,1,1,0,1,0,1,0,1
30,31,1,0.0241998849346593,0.147029553006376,0.0545535162721893,2000,2000,2000,0,0,0,0,0,0,1,1,0,1,0,1,0,1
55,53,1,0.00504895023968477,0.0392303433623507,0.201230033105365,2000,2000,2000,0,0,0,0,0,0,1,1,0,1,0,1,0,1
33,44,1,0.0088304430015616,0.0536505066397398,0.0199063639053254,2000,2000,2000,0,0,0,0,0,0,1,1,0,1,0,1,0,1
32,33,1,0.0023473329497822,0.0142615270814498,0.0052915650887574,2000,2000,2000,0,0,0,0,0,0,1,1,0,1,0,1,0,1
32,48,1,0.00428019646386229,0.0260048911207768,0.00964879659841102,2000,2000,2000,0,0,0,0,0,0,1,1,0,1,0,1,0,1
14,34,1,0.0479096151676253,0.291081107278934,0.108002082559413,2000,2000,2000,0,0,0,0,0,0,1,1,0,1,0,1,0,1
11,14,1,0.00804799868496753,0.0488966642792565,0.0181425088757396,2000,2000,2000,0,0,0,0,0,0,1,1,0,1,0,1,0,1
9,21,1,0.00476355676899553,0.028941609613309,0.0107384300550417,2000,2000,2000,0,0,0,0,0,0,1,1,0,1,0,1,0,1
58,54,1,0.0060254918268384,0.0468180714945344,0.240150895182223,2000,2000,2000,0,0,0,0,0,0,1,1,0,1,0,1,0,1
57,58,1,0.00716483075062523,0.055670734932358,0.285560177997054,2000,2000,2000,0,0,0,0,0,0,1,1,0,1,0,1,0,1
36,35,1,0.00441885547422174,0.026847331998843,0.00996137397629334,2000,2000,2000,0,0,0,0,0,0,1,1,0,1,0,1,0,1
35,12,1,0.0168058491872592,0.102106125734356,0.0378852283628847,2000,2000,2000,0,0,0,0,0,0,1,1,0,1,0,1,0,1
37,38,1,0.00625955453275253,0.0380307388838662,0.0141108402366864,2000,2000,2000,0,0,0,0,0,0,1,1,0,1,0,1,0,1
10,37,1,0.00726555436837347,0.0441428219187733,0.0163786538461538,2000,2000,2000,0,0,0,0,0,0,1,1,0,1,0,1,0,1
38,21,1,0.0117008179921014,0.0710898437671374,0.0263770165210919,2000,2000,2000,0,0,0,0,0,0,1,1,0,1,0,1,0,1
9,8,1,0.00863610480282732,0.052469779600371,0.0194682695872911,2000,2000,2000,0,0,0,0,0,0,1,1,0,1,0,1,0,1
39,9,1,0.0267148845237117,0.162309760593643,0.060223050295858,2000,2000,2000,0,0,0,0,0,0,1,1,0,1,0,1,0,1
40,25,1,0.00399804587176708,0.024290648447795,0.00901274783377293,2000,2000,2000,0,0,0,0,0,0,1,1,0,1,0,1,0,1
52,57,1,0.00789672216621323,0.0613575312314768,0.314730307785757,2000,2000,2000,0,0,0,0,0,0,1,1,0,1,0,1,0,1
52,57,1,0.00789672216621323,0.0613575312314768,0.314730307785757,2000,2000,2000,0,0,0,0,0,0,1,1,0,1,0,1,0,1
41,42,1,0.00735661908199565,0.0446960974477551,0.0165839399601095,2000,2000,2000,0,0,0,0,0,0,1,1,0,1,0,1,0,1
42,38,1,0.00364704449079795,0.0221580938390498,0.00822148954473719,2000,2000,2000,0,0,0,0,0,0,1,1,0,1,0,1,0,1
41,49,1,0.000904903196201761,0.00549785723406616,0.00203991264305753,2000,2000,2000,0,0,0,0,0,0,1,1,0,1,0,1,0,1
2,49,1,0.0100469560135937,0.0610415898977162,0.0226487348949566,2000,2000,2000,0,0,0,0,0,0,1,1,0,1,0,1,0,1
37,38,1,0.00793761857527597,0.0482260355455843,0.0178936802913706,2000,2000,2000,0,0,0,0,0,0,1,1,0,1,0,1,0,1
37,43,1,0.00225140471102023,0.0136787025719968,0.00507531518722301,2000,2000,2000,0,0,0,0,0,0,1,1,0,1,0,1,0,1
43,10,1,0.0039904742859785,0.0242446462921215,0.00899567929689191,2000,2000,2000,0,0,0,0,0,0,1,1,0,1,0,1,0,1
43,50,1,0.000198691388608262,0.00120717541146028,0.000447907662819527,2000,2000,2000,0,0,0,0,0,0,1,1,0,1,0,1,0,1
37,50,1,0.00273296622010356,0.0166044922448309,0.00616089363905325,2000,2000,2000,0,0,0,0,0,0,1,1,0,1,0,1,0,1
56,9,1,0.00163069199708814,0.0126704768173749,0.06499256062765,2000,2000,2000,1,0,0,0,0,0,1,1,0,1,0,1,0,1
51,9,1,0.0022,0.0955,0,2000,2000,2000,1,0,0,0,0,0,1,1,0,1,0,1,0,1
52,30,1,0.0022,0.0955,0,2000,2000,2000,1,0,0,0,0,0,1,1,0,1,0,1,0,1
53,10,1,0.0022,0.0955,0,2000,2000,2000,1,0,0,0,0,0,1,1,0,1,0,1,0,1
54,2,1,0.0022,0.0955,0,2000,2000,2000,1,0,0,0,0,0,1,1,0,1,0,1,0,1
55,32,1,0.0022,0.0955,0,2000,2000,2000,1,0,0,0,0,0,1,1,0,1,0,1,0,1
56,34,1,0.0022,0.0955,0,2000,2000,2000,1,0,0,0,0,0,1,1,0,1,0,1,0,1
57,1,1,0.0022,0.0955,0,2000,2000,2000,1,0,0,0,0,0,1,1,0,1,0,1,0,1
58,35,1,0.0022,0.0955,0,2000,2000,2000,1,0,0,0,0,0,1,1,0,1,0,1,0,1
59,4,1,0.0022,0.0955,0,2000,2000,2000,1,0,0,0,0,0,1,1,0,1,0,1,0,1
60,44,1,0.0022,0.0955,0,2000,2000,2000,1,0,0,0,0,0,1,1,0,1,0,1,0,1
61,20,1,0.0022,0.0955,0,2000,2000,2000,1,0,0,0,0,0,1,1,0,1,0,1,0,1
0 / END OF BRANCH DATA, BEGIN TRANSFORMER DATA 
56,9,1,1,1.5,0.5,1.5,1.5,0.00625,0,1,0,0
51,9,1,1,1.5,0.5,1.5,1.5,0.00625,0,1,0,0
52,30,1,1,1.5,0.5,1.5,1.5,0.00625,0,1,0,0
53,10,1,1,1.5,0.5,1.5,1.5,0.00625,0,1,0,0
54,2,1,1,1.5,0.5,1.5,1.5,0.00625,0,1,0,0
55,32,1,1,1.5,0.5,1.5,1.5,0.00625,0,1,0,0
56,34,1,1,1.5,0.5,1.5,1.5,0.00625,0,1,0,0
57,1,1,1,1.5,0.5,1.5,1.5,0.00625,0,1,0,0
58,35,1,1,1.5,0.5,1.5,1.5,0.00625,0,1,0,0
59,4,1,1,1.5,0.5,1.5,1.5,0.00625,0,1,0,0
60,44,1,1,1.5,0.5,1.5,1.5,0.00625,0,1,0,0
61,20,1,1,1.5,0.5,1.5,1.5,0.00625,0,1,0,0
0 / END OF TRANSFORMER DATA, BEGIN AREA INTERCHANGE DATA 
0 / END OF AREA INTERCHANGE DATA, BEGIN TWO-TERMINAL DC LINE DATA 
0 / END OF TWO-TERMINAL DC LINE DATA, BEGIN SWITCHED SHUNT DATA 
5,2,1.075,0.9875,0,27.5,15,-1,40,1
21,2,1.075,0.9875,0,27.5,15,-1,40,1
38,2,1.075,0.9875,0,27.5,15,-1,40,1
35,2,1.075,0.9875,0,27.5,15,-1,40,1
29,2,1.075,0.9875,0,27.5,15,-1,40,1
26,2,1.075,0.9875,0,27.5,15,-1,40,1
4,2,1.075,0.9875,0,27.5,15,-1,40,1
8,2,1.075,0.9875,0,27.5,15,-1,40,1
3,2,1.075,0.9875,0,27.5,15,-1,40,1
20,2,1.075,0.9875,0,27.5,15,-1,40,1
48,2,1.075,0.9875,0,27.5,15,-1,40,1
0 / END OF SWITCHED SHUNT DATA, BEGIN TRANSFORMER IMPEDANCE CORRECTION DATA 
0 / END OF TRANSFORMER IMPEDANCE CORRECTION DATA, BEGIN MULTI-TERMINAL DC LINE DATA 
0 / END OF MULTI-TERMINAL DC LINE DATA, BEGIN MULTI-SECTION LINE GROUPING DATA 
0 / END OF MULTI-SECTION LINE GROUPING DATA, BEGIN ZONE DATA 
0 / END OF ZONE DATA, BEGIN INTER-AREA TRANSFER DATA 
0 / END OF INTER-AREA TRANSFER DATA, BEGIN OWNER DATA 
0 / END OF OWNER DATA, BEGIN FACTS CONTROL DEVICE DATA 
0 / END OF FACTS CONTROL DEVICE DATA, END OF CASE DATA
